/*--------------------------------*- C++ -*----------------------------------*\
| =========                 |                                                 |
| \\      /  F ield         | OpenFOAM: The Open Source CFD Toolbox           |
|  \\    /   O peration     | Version:  2506                                  |
|   \\  /    A nd           | Website:  www.openfoam.com                      |
|    \\/     M anipulation  |                                                 |
\*---------------------------------------------------------------------------*/
FoamFile
{
    version     2.0;
    format      ascii;
    arch        "LSB;label=32;scalar=64";
    class       polyBoundaryMesh;
    location    "constant/polyMesh";
    object      boundary;
}
// * * * * * * * * * * * * * * * * * * * * * * * * * * * * * * * * * * * * * //

5
(
    wall
    {
        type            wall;
        inGroups        1(wall);
        nFaces          128;
        startFace       1200;
    }
    outlet
    {
        type            cyclic;
        inGroups        1(cyclic);
        nFaces          16;
        startFace       1328;
        matchTolerance  0.0001;
        transform       translational;
        neighbourPatch  inlet;
        separationVector (-0.4 0 0);
    }
    inlet
    {
        type            cyclic;
        inGroups        1(cyclic);
        nFaces          16;
        startFace       1344;
        matchTolerance  0.0001;
        transform       translational;
        neighbourPatch  outlet;
        separationVector (0.4 0 0);
    }
    procBoundary1to0
    {
        type            processor;
        inGroups        1(processor);
        nFaces          256;
        startFace       1360;
        matchTolerance  0.0001;
        transform       unknown;
        myProcNo        1;
        neighbProcNo    0;
    }
    procBoundary1to2
    {
        type            processor;
        inGroups        1(processor);
        nFaces          256;
        startFace       1616;
        matchTolerance  0.0001;
        transform       unknown;
        myProcNo        1;
        neighbProcNo    2;
    }
)

// ************************************************************************* //
