/*--------------------------------*- C++ -*----------------------------------*\
| =========                 |                                                 |
| \\      /  F ield         | OpenFOAM: The Open Source CFD Toolbox           |
|  \\    /   O peration     | Version:  2506                                  |
|   \\  /    A nd           | Website:  www.openfoam.com                      |
|    \\/     M anipulation  |                                                 |
\*---------------------------------------------------------------------------*/
FoamFile
{
    version     2.0;
    format      ascii;
    arch        "LSB;label=32;scalar=64";
    class       volScalarField;
    location    "0";
    object      k;
}
// * * * * * * * * * * * * * * * * * * * * * * * * * * * * * * * * * * * * * //

dimensions      [0 2 -2 0 0 0 0];

internalField   uniform 1e-06;

boundaryField
{
    inlet
    {
        type            turbulentIntensityKineticEnergyInlet;
        intensity       0.01;
        value           uniform 1e-06;
    }
    outlet
    {
        type            inletOutlet;
        inletValue      uniform 1e-06;
        value           uniform 1e-06;
    }
    wall
    {
        type            kqRWallFunction;
        value           uniform 1e-06;
    }
    procBoundary0to1
    {
        type            processor;
        value           uniform 1e-06;
    }
    procBoundary0to2
    {
        type            processor;
        value           uniform 1e-06;
    }
}


// ************************************************************************* //
